# Computational Materials Screening: Highly Stable Phases of ABX3 Compounds
# Be8Br24Na8
data_Be8Br24Na8
_pd_phase_name Be8Br24Na8
_cell_length_a  9.3435355962
_cell_length_b  13.3117244478
_cell_length_c  11.4252706841
_cell_angle_alpha  113.0138081708
_cell_angle_beta  88.8190557000
_cell_angle_gamma  96.8618505500
_symmetry_space_group_name_H-M  'P1'
_symmetry_Int_Tables_Number  1
loop_
_symmetry_equiv_pos_site_id
_symmetry_equiv_pos_as_xyz
  1  x,y,z
loop_
 _atom_site_label
 _atom_site_occupancy
 _atom_site_fract_x
 _atom_site_fract_y
 _atom_site_fract_z
 _atom_site_thermal_displace_type
 _atom_site_B_iso_or_equiv
 _atom_site_type_symbol
 _atom_site_symmetry_multiplicity
 _atom_site_Wyckoff_label
Be1 1.0000000000 0.9075661077 0.2166591371 0.8822850361  Biso 1.0 Be 1 a
Be2 1.0000000000 0.2164705663 0.1824108649 0.9016319475  Biso 1.0 Be 1 a
Be3 1.0000000000 0.7430256559 0.6885337434 0.4250149872  Biso 1.0 Be 1 a
Be4 1.0000000000 0.7287744209 0.1937531556 0.4092670484  Biso 1.0 Be 1 a
Be5 1.0000000000 0.0477615483 0.7325992932 0.3948962081  Biso 1.0 Be 1 a
Be6 1.0000000000 0.3716825489 0.3272390731 0.5137896469  Biso 1.0 Be 1 a
Be7 1.0000000000 0.6331633967 0.7263673790 0.9163343966  Biso 1.0 Be 1 a
Be8 1.0000000000 0.3398081154 0.7721446754 0.9845582036  Biso 1.0 Be 1 a
Br9 1.0000000000 0.0290374739 0.1935000614 0.0373130534  Biso 1.0 Br 1 a
Br10 1.0000000000 0.3860204548 0.3099998020 0.9859262034  Biso 1.0 Br 1 a
Br11 1.0000000000 0.9245706561 0.7549015191 0.5754335835  Biso 1.0 Br 1 a
Br12 1.0000000000 0.8954045115 0.3222144242 0.5178964378  Biso 1.0 Br 1 a
Br13 1.0000000000 0.5631604338 0.7829631307 0.4891926927  Biso 1.0 Br 1 a
Br14 1.0000000000 0.5125884234 0.2237845230 0.5418780242  Biso 1.0 Br 1 a
Br15 1.0000000000 0.1209474314 0.6997927349 0.9381522898  Biso 1.0 Br 1 a
Br16 1.0000000000 0.4815781450 0.6830867145 0.0558546521  Biso 1.0 Br 1 a
Br17 1.0000000000 0.7420979482 0.0831564554 0.7916314367  Biso 1.0 Br 1 a
Br18 1.0000000000 0.2711662209 0.0171191874 0.8297137547  Biso 1.0 Br 1 a
Br19 1.0000000000 0.6766068749 0.5175949593 0.3792978192  Biso 1.0 Br 1 a
Br20 1.0000000000 0.7598713822 0.0314667335 0.3929863411  Biso 1.0 Br 1 a
Br21 1.0000000000 0.1457380314 0.5814554872 0.3273700940  Biso 1.0 Br 1 a
Br22 1.0000000000 0.3439423602 0.9418853849 0.1246856146  Biso 1.0 Br 1 a
Br23 1.0000000000 0.7273588606 0.5841857029 0.7952244295  Biso 1.0 Br 1 a
Br24 1.0000000000 0.3194687500 0.4557292522 0.6805607676  Biso 1.0 Br 1 a
Br25 1.0000000000 0.6801000348 0.2052620462 0.2330900103  Biso 1.0 Br 1 a
Br26 1.0000000000 0.2996298627 0.3143736611 0.3407028774  Biso 1.0 Br 1 a
Br27 1.0000000000 0.7681435829 0.8779522505 0.0163901924  Biso 1.0 Br 1 a
Br28 1.0000000000 0.8400741462 0.3786345147 0.9529821837  Biso 1.0 Br 1 a
Br29 1.0000000000 0.4611832454 0.7682893107 0.8118049947  Biso 1.0 Br 1 a
Br30 1.0000000000 0.0914070692 0.2067338926 0.7466362092  Biso 1.0 Br 1 a
Br31 1.0000000000 0.8606170908 0.7161990119 0.2675302178  Biso 1.0 Br 1 a
Br32 1.0000000000 0.1867663890 0.8828451946 0.4291537987  Biso 1.0 Br 1 a
Na33 1.0000000000 0.0704231547 0.9277146416 0.9769814318  Biso 1.0 Na 1 a
Na34 1.0000000000 0.5591735833 0.0293467977 0.9808027858  Biso 1.0 Na 1 a
Na35 1.0000000000 0.9233088772 0.3902757329 0.2951205771  Biso 1.0 Na 1 a
Na36 1.0000000000 0.9329933625 0.9837202950 0.5716463337  Biso 1.0 Na 1 a
Na37 1.0000000000 0.3921286738 0.5695886194 0.4704023860  Biso 1.0 Na 1 a
Na38 1.0000000000 0.4851778299 0.8845816366 0.3187452546  Biso 1.0 Na 1 a
Na39 1.0000000000 0.0038218750 0.4691992471 0.7856213796  Biso 1.0 Na 1 a
Na40 1.0000000000 0.5600978949 0.3931896901 0.8256089006  Biso 1.0 Na 1 a
